&share
 wrf_core = 'ARW',
 max_dom = 1,
 start_date = "${syyyy}-${smm}-${sdd}_${shh}:00:00"
 end_date = "${eyyyy}-${emm}-${edd}_${ehh}:00:00"
 interval_seconds = 43200
 nocolons = .true.
/

&ungrib
 out_format = 'WPS',
 prefix = 'FILE',
/

&metgrid
 fg_name = 'FILE'
! process_only_bdy = 5,
/